# generated using pymatgen
data_Ca(FeAs)2
_symmetry_space_group_name_H-M   'P 1'
_cell_length_a   7.51800000
_cell_length_b   7.51800000
_cell_length_c   20.05000000
_cell_angle_alpha   90.00000000
_cell_angle_beta   90.00000000
_cell_angle_gamma   90.00000000
_symmetry_Int_Tables_number   1
_chemical_formula_structural   Ca(FeAs)2
_chemical_formula_sum   'Ca2 Fe4 As4'
_cell_volume   1133.23249620
_cell_formula_units_Z   2
loop_
 _symmetry_equiv_pos_site_id
 _symmetry_equiv_pos_as_xyz
  1  'x, y, z'
loop_
 _atom_site_type_symbol
 _atom_site_label
 _atom_site_symmetry_multiplicity
 _atom_site_fract_x
 _atom_site_fract_y
 _atom_site_fract_z
 _atom_site_occupancy
  Ca  Ca1  1  0.000000  0.000000  0.000000  1
  Ca  Ca2  1  0.500000  0.500000  0.500000  1
  Fe  Fe3  1  0.000000  0.500000  0.250000  1
  Fe  Fe4  1  0.500000  0.000000  0.750000  1
  Fe  Fe5  1  0.000000  0.500000  0.750000  1
  Fe  Fe6  1  0.500000  0.000000  0.250000  1
  As  As7  1  0.000000  0.000000  0.366100  1
  As  As8  1  0.500000  0.500000  0.866100  1
  As  As9  1  0.000000  0.000000  0.633900  1
  As  As10  1  0.500000  0.500000  0.133900  1
